[General]
network = Projektsimulation
sim-time-limit = 100s

Projektsimulation.project.probError=0.4
Projektsimulation.project.anzahlEntwickler=${4..5 step 1}
Projektsimulation.kunde.mu=1.5
Projektsimulation.kunde.probReopen=0.1
Projektsimulation.entwickler[*].mu=0.5
