[General]
network = Projektsimulation
sim-time-limit = 100s

Projektsimulation.project.probError=0.4
Projektsimulation.project.anzahlEntwickler=${1..5 step 1}
Projektsimulation.kunde.anzahlFeatures=${1..5 step 1}
Projektsimulation.kunde.mu=1.5
Projektsimulation.kunde.probReopen=0.1
